%Mem=15GB
%lindaworkers=cnode0223.cm.cluster
%CPU=0-23
%Chk=calixarene_S.chk
#n B3LYP/6-31G(d) Opt Freq

 calixarene_s

0 1
Br         3.68149       10.40375        9.55354
Br         9.65484        5.59598        6.67007
Br         2.98055        5.35954        6.08201
Br         9.23631        4.48614        0.66948
O          4.62887        8.04629        1.86876
O          5.02928        9.52197        4.55886
O          7.83709        8.64950        3.51343
O          8.31181       10.62553        5.87727
N          1.07190        9.35488        8.45882
N          6.88824        5.61297        7.91026
N          5.42427        3.73539        5.31994
C          4.21846        5.74609        4.67879
C          4.88582        7.04211        2.79546
N         11.73977        4.87223        2.29380
C          3.96987        6.83150        3.83331
C          4.34182        9.88106        6.81255
C          5.32396        4.89457        4.52234
C          6.39527        7.99114        7.56325
H          5.55397        7.87995        7.99094
C          8.52069        6.71397        2.31495
C          8.79981        7.67813        3.29253
C          3.33509        9.80217        7.76818
C          5.73984       10.38234        7.08992
H          5.76211       10.81824        7.97847
H          5.98697       11.05862        6.41064
C          2.90773        8.62065        5.28502
C          6.06413        6.31206        2.70267
C          4.06743        9.36093        5.53724
C          1.90408        8.61692        6.25362
H          1.08648        8.16840        6.07429
C          2.07677        9.25597        7.47605
C          9.93988        7.61506        4.09591
C          7.97304        9.40398        6.43900
C          6.74495        9.24573        7.05979
C          2.77964        7.77215        4.03186
H          2.70358        8.36768        3.24454
H          1.94956        7.23592        4.08755
C          8.84749        8.31555        6.23806
C         10.07564        8.44774        5.35745
H         10.20322        9.39830        5.11155
H         10.87483        8.15235        5.86169
C          7.13633        6.68954        1.68498
H          7.12629        6.03606        0.94141
H          6.93145        7.58244        1.30969
C          8.47189        7.09191        6.79878
C          7.24655        6.90690        7.45250
C         10.92656        6.68209        3.76107
H         11.73558        6.66191        4.25946
C          6.27089        5.23038        3.56292
H          7.06778        4.71877        3.49074
C         10.74998        5.78309        2.71325
C          9.51570        5.79031        2.04556
C          4.67161       10.49684        3.55993
H          3.73425       10.34101        3.28296
H          5.24635       10.36453        2.76471
C          4.81136       11.92946        4.03026
H          5.75300       12.10205        4.28008
H          4.25169       12.06509        4.83603
C          4.05288        7.53012        0.65352
H          3.18109        7.10361        0.84674
H          4.65274        6.84869        0.25801
C          8.20031        9.94599        2.99720
H          9.14439       10.12793        3.23137
H          7.64295       10.63242        3.44231
C          3.86615        8.66998       -0.30910
H          4.73847        9.11376       -0.45547
H          3.56104        8.30897       -1.17905
C          8.03820       10.08539        1.50658
H          7.09615        9.91189        1.25430
H          8.60983        9.42362        1.04353
C          4.38719       12.91829        2.95131
H          4.92879       12.77647        2.14689
H          4.51781       13.83327        3.27619
H          3.44061       12.78059        2.73532
C          2.87561        9.68813        0.16762
H          2.02323        9.24883        0.36491
H          2.74165       10.36477       -0.52928
H          3.21664       10.12025        0.97922
C          8.43686       11.50568        1.08354
H          7.82876       12.15357        1.49710
H          8.38154       11.58366        0.10764
H          9.35481       11.68787        1.37366
C          9.59110       13.96785        6.32167
H          9.21703       14.13250        7.21189
H          9.53565       14.78612        5.78632
H         10.52840       13.69457        6.40599
C          8.86243       11.57317        6.43740
H          9.81304       11.34687        6.59854
H          8.43375       11.72478        7.31647
C          8.78977       12.84382        5.62724
H          7.84421       13.12171        5.53006
H          9.15796       12.68298        4.72271
H          7.52052        4.86442        7.81467
H          6.00728        5.46349        8.32355
H         11.55875        4.25869        1.54544
H         12.61237        4.84934        2.74908
H          6.19575        3.13247        5.21727
H          4.72279        3.52931        5.97926
H          0.17698        8.98225        8.28704
H          1.26471        9.79661        9.31727

